@<TRIPOS>MOLECULE
CCCC(C)C
 20 19 0 0 0
SMALL
GASTEIGER

@<TRIPOS>ATOM
      1 C          -2.1986    0.4816    0.0002 C.3     1  UNL1       -0.0653
      2 C          -1.6139   -0.6210   -0.8684 C.3     1  UNL1       -0.0557
      3 C          -1.0388   -1.7935   -0.0676 C.3     1  UNL1       -0.0510
      4 C           0.1064   -1.4450    0.9018 C.3     1  UNL1       -0.0467
      5 C           0.5470   -2.7042    1.6541 C.3     1  UNL1       -0.0627
      6 C           1.3072   -0.8243    0.1872 C.3     1  UNL1       -0.0627
      7 H          -1.4227    0.9892    0.5805 H       1  UNL1        0.0230
      8 H          -2.6875    1.2340   -0.6271 H       1  UNL1        0.0230
      9 H          -2.9453    0.0818    0.6934 H       1  UNL1        0.0230
     10 H          -0.8518   -0.2001   -1.5330 H       1  UNL1        0.0263
     11 H          -2.4080   -1.0079   -1.5188 H       1  UNL1        0.0263
     12 H          -0.6908   -2.5534   -0.7795 H       1  UNL1        0.0268
     13 H          -1.8555   -2.2583    0.5002 H       1  UNL1        0.0268
     14 H          -0.2582   -0.7295    1.6483 H       1  UNL1        0.0295
     15 H           0.9363   -3.4629    0.9667 H       1  UNL1        0.0232
     16 H           1.3331   -2.4691    2.3795 H       1  UNL1        0.0232
     17 H          -0.2925   -3.1427    2.2039 H       1  UNL1        0.0232
     18 H           1.6763   -1.4783   -0.6101 H       1  UNL1        0.0232
     19 H           1.0511    0.1430   -0.2553 H       1  UNL1        0.0232
     20 H           2.1299   -0.6511    0.8895 H       1  UNL1        0.0232
@<TRIPOS>BOND
     1    10     2    1
     2    11     2    1
     3     2     3    1
     4     2     1    1
     5    12     3    1
     6     8     1    1
     7    18     6    1
     8    19     6    1
     9     3    13    1
    10     3     4    1
    11     1     7    1
    12     1     9    1
    13     6    20    1
    14     6     4    1
    15     4    14    1
    16     4     5    1
    17    15     5    1
    18     5    17    1
    19     5    16    1
