@<TRIPOS>MOLECULE
CC(C)=C(C)C
 18 17 0 0 0
SMALL
GASTEIGER

@<TRIPOS>ATOM
      1 C           1.4915   -0.9780   -0.0364 C.3     1  UNL1       -0.0438
      2 C           0.0750   -0.5730   -0.3692 C.2     1  UNL1       -0.0770
      3 C          -0.9281   -1.6337    0.0182 C.3     1  UNL1       -0.0438
      4 C          -0.2576    0.6062   -0.9487 C.2     1  UNL1       -0.0770
      5 C           0.7309    1.7109   -1.2382 C.3     1  UNL1       -0.0438
      6 C          -1.6596    0.9672   -1.3794 C.3     1  UNL1       -0.0438
      7 H           1.6682   -0.8827    1.0396 H       1  UNL1        0.0274
      8 H           2.2475   -0.3950   -0.5673 H       1  UNL1        0.0274
      9 H           1.6605   -2.0229   -0.3210 H       1  UNL1        0.0274
     10 H          -0.8984   -2.4607   -0.6983 H       1  UNL1        0.0274
     11 H          -0.6903   -2.0312    1.0115 H       1  UNL1        0.0274
     12 H          -1.9534   -1.2619    0.0800 H       1  UNL1        0.0274
     13 H           0.9668    1.7356   -2.3068 H       1  UNL1        0.0274
     14 H           0.3037    2.6806   -0.9582 H       1  UNL1        0.0274
     15 H           1.6635    1.6192   -0.6768 H       1  UNL1        0.0274
     16 H          -1.6392    1.4398   -2.3681 H       1  UNL1        0.0274
     17 H          -2.3229    0.1042   -1.4716 H       1  UNL1        0.0274
     18 H          -2.1018    1.6742   -0.6703 H       1  UNL1        0.0274
@<TRIPOS>BOND
     1    16     6    1
     2    13     5    1
     3    17     6    1
     4     6     4    1
     5     6    18    1
     6     5    14    1
     7     5     4    1
     8     5    15    1
     9     4     2    2
    10    10     3    1
    11     8     1    1
    12     2     1    1
    13     2     3    1
    14     9     1    1
    15     1     7    1
    16     3    12    1
    17     3    11    1
