@<TRIPOS>MOLECULE
CCC(C)(C)C
 20 19 0 0 0
SMALL
GASTEIGER

@<TRIPOS>ATOM
      1 C           1.0823    0.6658    1.5837 C.3     1  UNL1       -0.0648
      2 C           1.5098    0.4405    0.1384 C.3     1  UNL1       -0.0510
      3 C           0.5126   -0.3530   -0.7447 C.3     1  UNL1       -0.0380
      4 C           1.1149   -0.4772   -2.1579 C.3     1  UNL1       -0.0601
      5 C          -0.8367    0.3766   -0.8515 C.3     1  UNL1       -0.0601
      6 C           0.2805   -1.7670   -0.1869 C.3     1  UNL1       -0.0601
      7 H           1.8553    1.2329    2.1132 H       1  UNL1        0.0230
      8 H           0.9463   -0.2789    2.1172 H       1  UNL1        0.0230
      9 H           0.1543    1.2407    1.6461 H       1  UNL1        0.0230
     10 H           2.4771   -0.0788    0.1477 H       1  UNL1        0.0268
     11 H           1.6949    1.4220   -0.3175 H       1  UNL1        0.0268
     12 H           2.0753   -1.0046   -2.1338 H       1  UNL1        0.0235
     13 H           0.4481   -1.0323   -2.8274 H       1  UNL1        0.0235
     14 H           1.2862    0.5094   -2.6032 H       1  UNL1        0.0235
     15 H          -0.7028    1.4049   -1.2051 H       1  UNL1        0.0235
     16 H          -1.5048   -0.1324   -1.5559 H       1  UNL1        0.0235
     17 H          -1.3542    0.4161    0.1125 H       1  UNL1        0.0235
     18 H           1.2285   -2.3005   -0.0563 H       1  UNL1        0.0235
     19 H          -0.3436   -2.3603   -0.8652 H       1  UNL1        0.0235
     20 H          -0.2291   -1.7427    0.7818 H       1  UNL1        0.0235
@<TRIPOS>BOND
     1    13     4    1
     2    14     4    1
     3     4    12    1
     4     4     3    1
     5    16     5    1
     6    15     5    1
     7    19     6    1
     8     5     3    1
     9     5    17    1
    10     3     6    1
    11     3     2    1
    12    11     2    1
    13     6    18    1
    14     6    20    1
    15     2    10    1
    16     2     1    1
    17     1     9    1
    18     1     7    1
    19     1     8    1
