@<TRIPOS>MOLECULE
C=C=C(C)C
 13 12 0 0 0
SMALL
GASTEIGER

@<TRIPOS>ATOM
      1 C           1.2400    0.7733   -0.2476 C.2     1  UNL1       -0.0563
      2 C           0.1394    0.6937    0.4349 C.1     1  UNL1       -0.1289
      3 C          -0.9672    0.6136    1.1212 C.2     1  UNL1       -0.0344
      4 C          -0.9927    0.1675    2.5555 C.3     1  UNL1       -0.0365
      5 C          -2.3049    0.9612    0.5324 C.3     1  UNL1       -0.0365
      6 H           1.5986   -0.0756   -0.8178 H       1  UNL1        0.0622
      7 H           1.8179    1.6900   -0.2583 H       1  UNL1        0.0622
      8 H           0.0110   -0.0703    2.9240 H       1  UNL1        0.0280
      9 H          -1.4063    0.9560    3.1925 H       1  UNL1        0.0280
     10 H          -1.6117   -0.7289    2.6647 H       1  UNL1        0.0280
     11 H          -2.2179    1.2779   -0.5126 H       1  UNL1        0.0280
     12 H          -2.9728    0.0944    0.5661 H       1  UNL1        0.0280
     13 H          -2.7673    1.7793    1.0939 H       1  UNL1        0.0280
@<TRIPOS>BOND
     1     6     1    1
     2    11     5    1
     3     7     1    1
     4     1     2    2
     5     2     3    2
     6     5    12    1
     7     5    13    1
     8     5     3    1
     9     3     4    1
    10     4    10    1
    11     4     8    1
    12     4     9    1
