@<TRIPOS>MOLECULE
C/C=C/CCC
 18 17 0 0 0
SMALL
GASTEIGER

@<TRIPOS>ATOM
      1 C          -2.7264   -2.2627    0.1901 C.3     1  UNL1       -0.0468
      2 C          -1.9873   -1.1529   -0.4840 C.2     1  UNL1       -0.0910
      3 C          -0.6541   -1.1236   -0.6360 C.2     1  UNL1       -0.0882
      4 C           0.0861   -0.0110   -1.3245 C.3     1  UNL1       -0.0350
      5 C           0.9762    0.8001   -0.3790 C.3     1  UNL1       -0.0525
      6 C           2.1456    0.0068    0.1869 C.3     1  UNL1       -0.0650
      7 H          -3.4407   -2.7116   -0.5067 H       1  UNL1        0.0272
      8 H          -2.0556   -3.0508    0.5465 H       1  UNL1        0.0272
      9 H          -3.2814   -1.8727    1.0487 H       1  UNL1        0.0272
     10 H          -2.5937   -0.3328   -0.8622 H       1  UNL1        0.0566
     11 H          -0.0543   -1.9510   -0.2625 H       1  UNL1        0.0569
     12 H          -0.6246    0.6741   -1.8034 H       1  UNL1        0.0307
     13 H           0.6928   -0.4395   -2.1312 H       1  UNL1        0.0307
     14 H           0.3786    1.2051    0.4466 H       1  UNL1        0.0266
     15 H           1.3762    1.6592   -0.9312 H       1  UNL1        0.0266
     16 H           2.7878    0.6609    0.7856 H       1  UNL1        0.0230
     17 H           2.7541   -0.4219   -0.6157 H       1  UNL1        0.0230
     18 H           1.8045   -0.8061    0.8348 H       1  UNL1        0.0230
@<TRIPOS>BOND
     1    13     4    1
     2    12     4    1
     3     4     3    1
     4     4     5    1
     5    15     5    1
     6    10     2    1
     7     3     2    2
     8     3    11    1
     9    17     6    1
    10     7     1    1
    11     2     1    1
    12     5     6    1
    13     5    14    1
    14     6    16    1
    15     6    18    1
    16     1     8    1
    17     1     9    1
