@<TRIPOS>MOLECULE
C=C=CC
 10 9 0 0 0
SMALL
GASTEIGER

@<TRIPOS>ATOM
      1 C          -0.8377    0.0263   -1.4874 C.2     1  UNL1       -0.0565
      2 C           0.3546    0.3102   -1.0622 C.1     1  UNL1       -0.1321
      3 C           1.5497    0.5955   -0.6362 C.2     1  UNL1       -0.0455
      4 C           2.4994   -0.3850   -0.0335 C.3     1  UNL1       -0.0393
      5 H          -1.6911    0.0893   -0.8223 H       1  UNL1        0.0622
      6 H          -0.9996   -0.2809   -2.5141 H       1  UNL1        0.0622
      7 H           1.8953    1.6219   -0.7196 H       1  UNL1        0.0656
      8 H           2.7605   -0.0760    0.9832 H       1  UNL1        0.0278
      9 H           3.4182   -0.4282   -0.6261 H       1  UNL1        0.0278
     10 H           2.0726   -1.3921    0.0125 H       1  UNL1        0.0278
@<TRIPOS>BOND
     1     6     1    1
     2     1     2    2
     3     1     5    1
     4     2     3    2
     5     7     3    1
     6     3     4    1
     7     9     4    1
     8     4    10    1
     9     4     8    1
