@<TRIPOS>MOLECULE
CC=C=CC
 13 12 0 0 0
SMALL
GASTEIGER

@<TRIPOS>ATOM
      1 C          -1.1803   -2.2753    1.3328 C.3     1  UNL1       -0.0393
      2 C          -0.0146   -1.4421    0.9169 C.2     1  UNL1       -0.0452
      3 C          -0.0837   -0.3999    0.1418 C.1     1  UNL1       -0.1289
      4 C          -0.1547    0.6422   -0.6331 C.2     1  UNL1       -0.0452
      5 C          -1.3918    1.4383   -0.8817 C.3     1  UNL1       -0.0393
      6 H          -2.1187   -1.9071    0.9059 H       1  UNL1        0.0278
      7 H          -1.0364   -3.3094    1.0054 H       1  UNL1        0.0278
      8 H          -1.2736   -2.2699    2.4230 H       1  UNL1        0.0278
      9 H           0.9585   -1.7378    1.2979 H       1  UNL1        0.0657
     10 H           0.7467    0.9669   -1.1447 H       1  UNL1        0.0657
     11 H          -1.2358    2.4770   -0.5752 H       1  UNL1        0.0278
     12 H          -1.6350    1.4277   -1.9485 H       1  UNL1        0.0278
     13 H          -2.2503    1.0423   -0.3297 H       1  UNL1        0.0278
@<TRIPOS>BOND
     1    12     5    1
     2    10     4    1
     3     5     4    1
     4     5    11    1
     5     5    13    1
     6     4     3    2
     7     3     2    2
     8     6     1    1
     9     2     9    1
    10     2     1    1
    11     7     1    1
    12     1     8    1
