@<TRIPOS>MOLECULE
C=CCCCC
 18 17 0 0 0
SMALL
GASTEIGER

@<TRIPOS>ATOM
      1 C           1.4467    1.6215    1.9331 C.2     1  UNL1       -0.1026
      2 C           0.7896    2.6939    1.4734 C.2     1  UNL1       -0.0911
      3 C           0.3108    2.9519    0.0691 C.3     1  UNL1       -0.0350
      4 C           0.3650    1.7989   -0.9411 C.3     1  UNL1       -0.0499
      5 C          -0.6830    0.7160   -0.6704 C.3     1  UNL1       -0.0556
      6 C          -0.6159   -0.3914   -1.7110 C.3     1  UNL1       -0.0653
      7 H           1.7144    0.7830    1.2996 H       1  UNL1        0.0532
      8 H           1.7425    1.5630    2.9765 H       1  UNL1        0.0532
      9 H           0.5767    3.4954    2.1805 H       1  UNL1        0.0566
     10 H          -0.7215    3.3196    0.1262 H       1  UNL1        0.0307
     11 H           0.9095    3.7817   -0.3275 H       1  UNL1        0.0307
     12 H           1.3697    1.3608   -0.9698 H       1  UNL1        0.0268
     13 H           0.1829    2.2156   -1.9402 H       1  UNL1        0.0268
     14 H          -1.6852    1.1601   -0.6853 H       1  UNL1        0.0263
     15 H          -0.5412    0.2767    0.3221 H       1  UNL1        0.0263
     16 H          -1.3757   -1.1517   -1.5047 H       1  UNL1        0.0230
     17 H           0.3642   -0.8790   -1.7015 H       1  UNL1        0.0230
     18 H          -0.7945    0.0029   -2.7164 H       1  UNL1        0.0230
@<TRIPOS>BOND
     1    18     6    1
     2    13     4    1
     3     6    17    1
     4     6    16    1
     5     6     5    1
     6    12     4    1
     7     4     5    1
     8     4     3    1
     9    14     5    1
    10     5    15    1
    11    11     3    1
    12     3    10    1
    13     3     2    1
    14     7     1    1
    15     2     1    2
    16     2     9    1
    17     1     8    1
