@<TRIPOS>MOLECULE
CCCCCCCC
 26 25 0 0 0
SMALL
GASTEIGER

@<TRIPOS>ATOM
      1 C           1.5609    2.0720   -1.6279 C.3     1  UNL1       -0.0653
      2 C           0.4697    1.4689   -2.4952 C.3     1  UNL1       -0.0559
      3 C           0.0592    0.0472   -2.1001 C.3     1  UNL1       -0.0533
      4 C          -0.5802   -0.0691   -0.7112 C.3     1  UNL1       -0.0531
      5 C           0.4156   -0.5052    0.3680 C.3     1  UNL1       -0.0531
      6 C          -0.1761   -0.4898    1.7815 C.3     1  UNL1       -0.0533
      7 C          -1.3866   -1.3990    2.0067 C.3     1  UNL1       -0.0559
      8 C          -1.0982   -2.8697    1.7497 C.3     1  UNL1       -0.0653
      9 H           1.2025    2.2618   -0.6120 H       1  UNL1        0.0230
     10 H           1.8845    3.0310   -2.0453 H       1  UNL1        0.0230
     11 H           2.4338    1.4140   -1.5768 H       1  UNL1        0.0230
     12 H           0.8236    1.4474   -3.5331 H       1  UNL1        0.0263
     13 H          -0.4086    2.1251   -2.4786 H       1  UNL1        0.0263
     14 H           0.9148   -0.6322   -2.1928 H       1  UNL1        0.0265
     15 H          -0.6799   -0.2880   -2.8394 H       1  UNL1        0.0265
     16 H          -1.0645    0.8734   -0.4306 H       1  UNL1        0.0265
     17 H          -1.3731   -0.8241   -0.7728 H       1  UNL1        0.0265
     18 H           1.2865    0.1582    0.3643 H       1  UNL1        0.0265
     19 H           0.7974   -1.5057    0.1335 H       1  UNL1        0.0265
     20 H           0.6138   -0.7708    2.4894 H       1  UNL1        0.0265
     21 H          -0.4630    0.5387    2.0341 H       1  UNL1        0.0265
     22 H          -1.7122   -1.2854    3.0479 H       1  UNL1        0.0263
     23 H          -2.2283   -1.0761    1.3845 H       1  UNL1        0.0263
     24 H          -0.2451   -3.2127    2.3434 H       1  UNL1        0.0230
     25 H          -1.9673   -3.4762    2.0240 H       1  UNL1        0.0230
     26 H          -0.8840   -3.0578    0.6936 H       1  UNL1        0.0230
@<TRIPOS>BOND
     1    12     2    1
     2    15     3    1
     3     2    13    1
     4     2     3    1
     5     2     1    1
     6    14     3    1
     7     3     4    1
     8    10     1    1
     9     1    11    1
    10     1     9    1
    11    17     4    1
    12     4    16    1
    13     4     5    1
    14    19     5    1
    15    18     5    1
    16     5     6    1
    17    26     8    1
    18    23     7    1
    19     8     7    1
    20     8    25    1
    21     8    24    1
    22     6     7    1
    23     6    21    1
    24     6    20    1
    25     7    22    1
