@<TRIPOS>MOLECULE
C1CCCC1
 15 15 0 0 0
SMALL
GASTEIGER

@<TRIPOS>ATOM
      1 C           1.0602    1.2847   -0.1378 C.3     1  UNL1       -0.0531
      2 C           0.0921    0.8248    0.9414 C.3     1  UNL1       -0.0531
      3 C           0.2153   -0.6881    0.8967 C.3     1  UNL1       -0.0531
      4 C           0.2798   -0.9881   -0.5930 C.3     1  UNL1       -0.0531
      5 C           1.0109    0.2012   -1.2138 C.3     1  UNL1       -0.0531
      6 H           0.7998    2.2715   -0.5322 H       1  UNL1        0.0265
      7 H           2.0748    1.3486    0.2733 H       1  UNL1        0.0265
      8 H          -0.9299    1.1304    0.6879 H       1  UNL1        0.0265
      9 H           0.3392    1.2359    1.9243 H       1  UNL1        0.0265
     10 H           1.1420   -1.0085    1.3874 H       1  UNL1        0.0265
     11 H          -0.6235   -1.1909    1.3863 H       1  UNL1        0.0265
     12 H           0.7824   -1.9374   -0.8013 H       1  UNL1        0.0265
     13 H          -0.7344   -1.0519   -1.0052 H       1  UNL1        0.0265
     14 H           2.0245   -0.0752   -1.5241 H       1  UNL1        0.0265
     15 H           0.4805    0.5524   -2.1055 H       1  UNL1        0.0265
@<TRIPOS>BOND
     1    15     5    1
     2    14     5    1
     3     5     4    1
     4     5     1    1
     5    13     4    1
     6    12     4    1
     7     4     3    1
     8     6     1    1
     9     1     7    1
    10     1     2    1
    11     8     2    1
    12     3     2    1
    13     3    11    1
    14     3    10    1
    15     2     9    1
