@<TRIPOS>MOLECULE
C=C(C)CC
 15 14 0 0 0
SMALL
GASTEIGER

@<TRIPOS>ATOM
      1 C          -0.1733    1.2819    1.7700 C.2     1  UNL1       -0.0997
      2 C           0.2094    0.7095    0.6163 C.2     1  UNL1       -0.0800
      3 C           0.0902    1.4584   -0.6854 C.3     1  UNL1       -0.0440
      4 C           0.7793   -0.6882    0.4851 C.3     1  UNL1       -0.0351
      5 C           0.9256   -1.4993    1.7675 C.3     1  UNL1       -0.0616
      6 H          -0.5752    2.2910    1.7942 H       1  UNL1        0.0534
      7 H          -0.1023    0.7738    2.7256 H       1  UNL1        0.0534
      8 H          -0.3250    2.4627   -0.5495 H       1  UNL1        0.0274
      9 H           1.0746    1.5660   -1.1526 H       1  UNL1        0.0274
     10 H          -0.5661    0.9179   -1.3753 H       1  UNL1        0.0274
     11 H           1.7686   -0.6143    0.0163 H       1  UNL1        0.0307
     12 H           0.1425   -1.2566   -0.2044 H       1  UNL1        0.0307
     13 H           1.5987   -1.0061    2.4765 H       1  UNL1        0.0233
     14 H          -0.0431   -1.6546    2.2536 H       1  UNL1        0.0233
     15 H           1.3457   -2.4848    1.5405 H       1  UNL1        0.0233
@<TRIPOS>BOND
     1    10     3    1
     2     9     3    1
     3     3     8    1
     4     3     2    1
     5    12     4    1
     6    11     4    1
     7     4     2    1
     8     4     5    1
     9     2     1    2
    10    15     5    1
    11     5    14    1
    12     5    13    1
    13     1     6    1
    14     1     7    1
