@<TRIPOS>MOLECULE
CC=C(C)C
 15 14 0 0 0
SMALL
GASTEIGER

@<TRIPOS>ATOM
      1 C           0.9060    0.6192    3.6742 C.3     1  UNL1       -0.0466
      2 C           0.8402    0.8648    2.2004 C.2     1  UNL1       -0.0884
      3 C          -0.2231    0.7534    1.3806 C.2     1  UNL1       -0.0799
      4 C          -0.0868    1.0474   -0.0916 C.3     1  UNL1       -0.0441
      5 C          -1.6090    0.3447    1.7973 C.3     1  UNL1       -0.0441
      6 H           1.2308    1.5320    4.1837 H       1  UNL1        0.0272
      7 H          -0.0435    0.3117    4.1148 H       1  UNL1        0.0272
      8 H           1.6407   -0.1650    3.8826 H       1  UNL1        0.0272
      9 H           1.7934    1.1715    1.7694 H       1  UNL1        0.0569
     10 H          -0.3456    0.1614   -0.6805 H       1  UNL1        0.0274
     11 H          -0.7570    1.8645   -0.3784 H       1  UNL1        0.0274
     12 H           0.9318    1.3420   -0.3653 H       1  UNL1        0.0274
     13 H          -1.9113   -0.5593    1.2581 H       1  UNL1        0.0274
     14 H          -2.3221    1.1412    1.5597 H       1  UNL1        0.0274
     15 H          -1.7020    0.1330    2.8639 H       1  UNL1        0.0274
@<TRIPOS>BOND
     1    10     4    1
     2    11     4    1
     3    12     4    1
     4     4     3    1
     5    13     5    1
     6     3     5    1
     7     3     2    2
     8    14     5    1
     9     9     2    1
    10     5    15    1
    11     2     1    1
    12     1     8    1
    13     1     7    1
    14     1     6    1
